Circuit: * C:\Users\Chase\Documents\GitHub\eaglePosts\shiftRegBoard\Draft1.asc

Direct Newton iteration for .op point succeeded.

Date: Thu Jan 27 00:53:22 2022
Total elapsed time: 0.033 seconds.

tnom = 27
temp = 27
method = modified trap
totiter = 2080
traniter = 2044
tranpoints = 1018
accept = 1018
rejected = 0
matrix size = 69
fillins = 65
solver = Normal
Matrix Compiler1: 5.95 KB object code size  1.2/0.4/[0.3]
Matrix Compiler2: 6.70 KB object code size  0.4/0.5/[0.3]

