Circuit: * C:\Users\Chase\Documents\GitHub\eaglePosts\shiftRegBoard\hw5.asc

Model "pmos_lev_1": Oxide thickness thinner than recommended for a level 1 MOSFET.
Model "nmos_lev_1": Oxide thickness thinner than recommended for a level 1 MOSFET.
Instance "m4": Width narrower than recommended for a level 1 MOSFET.
Direct Newton iteration for .op point succeeded.
Changing Tseed to 1e-011
Changing Tseed to 1e-013
Changing Tseed to 1e-010
Changing Tseed to 1e-014
Changing Tseed to 1e-009

Date: Wed Oct 20 22:55:37 2021
Total elapsed time: 0.985 seconds.

tnom = 27
temp = 27
method = modified trap
totiter = 200077
traniter = 200069
tranpoints = 100013
accept = 100008
rejected = 0
matrix size = 12
fillins = 4
solver = Normal
Matrix Compiler1: 852 bytes object code size  0.1/0.1/[0.1]
Matrix Compiler2: off  [0.1]/0.1/0.1

