Circuit: * C:\Users\Chase\Documents\GitHub\eaglePosts\3101\LAB2bModel.asc

Direct Newton iteration for .op point succeeded.

Date: Wed Nov 10 22:09:27 2021
Total elapsed time: 1.368 seconds.

tnom = 27
temp = 27
method = modified trap
totiter = 272398
traniter = 272382
tranpoints = 100243
accept = 67427
rejected = 32816
matrix size = 78
fillins = 83
solver = Normal
Matrix Compiler1: 7.90 KB object code size  1.4/0.5/[0.4]
Matrix Compiler2: 7.94 KB object code size  0.4/0.5/[0.3]

